Version 4
SHEET 1 936 700
WIRE 480 -64 -64 -64
WIRE 384 -32 16 -32
WIRE 176 0 48 0
WIRE 176 16 176 0
WIRE 192 16 176 16
WIRE 320 16 256 16
WIRE 544 32 544 -64
WIRE 592 32 544 32
WIRE 704 32 592 32
WIRE -64 80 -64 -64
WIRE 16 80 16 -32
WIRE 176 80 176 16
WIRE 320 80 320 16
WIRE 320 80 288 80
WIRE 480 80 320 80
WIRE 544 80 544 32
WIRE 592 80 592 32
WIRE 704 80 704 32
WIRE 176 192 176 160
WIRE 176 192 16 192
WIRE 288 192 288 160
WIRE 384 192 384 -32
WIRE 384 192 288 192
WIRE 592 192 592 144
WIRE 704 192 704 160
WIRE 704 192 592 192
WIRE 384 208 384 192
WIRE 704 208 704 192
WIRE 176 224 176 192
WIRE 288 224 288 192
WIRE -64 256 -64 192
WIRE 304 304 288 304
WIRE 480 304 304 304
WIRE 544 304 544 80
WIRE 48 336 48 0
WIRE 176 336 176 304
WIRE 192 336 176 336
WIRE 304 336 304 304
WIRE 304 336 256 336
WIRE -64 368 -64 336
WIRE 0 416 -48 416
WIRE 128 416 96 416
WIRE -48 464 -48 416
WIRE 96 464 96 416
WIRE -48 576 -48 544
WIRE 48 576 48 432
WIRE 48 576 -48 576
WIRE 96 576 96 544
WIRE 176 576 176 432
WIRE 176 576 96 576
WIRE 48 608 48 576
WIRE 176 608 176 576
FLAG 384 208 0
FLAG 176 608 0
FLAG 48 608 0
FLAG -64 368 0
FLAG 704 208 0
SYMBOL ind2 160 176 M180
WINDOW 0 -44 86 Left 2
WINDOW 3 -87 11 Left 2
SYMATTR InstName L1
SYMATTR Value 4.54mH
SYMATTR Type ind
SYMBOL ind2 304 176 R180
WINDOW 0 -49 69 Left 2
WINDOW 3 -78 22 Left 2
SYMATTR InstName L2
SYMATTR Value 4.54mH
SYMATTR Type ind
SYMBOL ind2 160 320 M180
WINDOW 0 -35 73 Left 2
WINDOW 3 -71 17 Left 2
SYMATTR InstName L3
SYMATTR Value 4.54mH
SYMATTR Type ind
SYMBOL ind2 304 320 R180
WINDOW 0 -33 78 Left 2
WINDOW 3 -87 41 Left 2
SYMATTR InstName L4
SYMATTR Value 4.54mH
SYMATTR Type ind
SYMBOL ind2 -80 208 R270
WINDOW 0 32 56 VTop 2
WINDOW 3 5 56 VBottom 2
SYMATTR InstName L5
SYMATTR Value 360µH
SYMATTR Type ind
SYMBOL ind2 32 64 R90
WINDOW 0 5 56 VBottom 2
WINDOW 3 32 56 VTop 2
SYMATTR InstName L6
SYMATTR Value 360µH
SYMATTR Type ind
SYMBOL diode 480 -48 R270
WINDOW 0 32 32 VTop 2
WINDOW 3 0 32 VBottom 2
SYMATTR InstName D1
SYMATTR Value MURS120
SYMBOL diode 480 96 R270
WINDOW 0 32 32 VTop 2
WINDOW 3 0 32 VBottom 2
SYMATTR InstName D2
SYMATTR Value MURS120
SYMBOL diode 480 320 R270
WINDOW 0 32 32 VTop 2
WINDOW 3 0 32 VBottom 2
SYMATTR InstName D3
SYMATTR Value MURS120
SYMBOL voltage 96 448 R0
WINDOW 3 2 234 Left 2
WINDOW 123 0 0 Left 2
WINDOW 39 0 0 Left 2
SYMATTR InstName V1
SYMATTR Value PULSE(0 12 {t0/2} {slew} {slew} {tOn} {t0})
SYMBOL voltage -48 448 R0
WINDOW 3 -72 200 Left 2
WINDOW 123 0 0 Left 2
WINDOW 39 0 0 Left 2
SYMATTR InstName V2
SYMATTR Value PULSE(0 12 0 {slew} {slew} {tOn} {t0})
SYMBOL nmos 0 336 R0
WINDOW 3 67 48 VRight 2
SYMATTR InstName M1
SYMATTR Value BSC16DN25NS3
SYMBOL nmos 128 336 R0
WINDOW 3 76 51 VRight 2
SYMATTR InstName M2
SYMATTR Value BSC16DN25NS3
SYMBOL cap 576 80 R0
SYMATTR InstName C1
SYMATTR Value 50µF
SYMBOL res 688 64 R0
SYMATTR InstName R1
SYMATTR Value 25
SYMBOL voltage -64 240 R0
WINDOW 123 0 0 Left 2
WINDOW 39 24 124 Left 2
SYMATTR InstName V3
SYMATTR Value 11.5
SYMBOL cap 256 0 R90
WINDOW 0 0 32 VBottom 2
WINDOW 3 -18 -8 VTop 2
SYMATTR InstName C3
SYMATTR Value .1µF
SYMBOL cap 256 320 R90
WINDOW 0 12 -6 VBottom 2
WINDOW 3 23 -8 VTop 2
SYMATTR InstName C4
SYMATTR Value .1µF
TEXT -128 136 Left 2 !K3 L5 L6 .99
TEXT 232 312 VLeft 2 !K2 L3 L4 .99
TEXT 232 176 VLeft 2 !K1 L1 L2 .99
TEXT -64 -264 Left 2 !.tran 0 10ms 1ms\n.param f0 150k\n.param duty 75\n.param slew 5n\n.param t0 {1/{f0}}\n.param tOn {{t0}*{{duty}/100}-{2*{slew}}}
